! Generated by qgis2fds 1.0.2 on QGIS 3.34.0-Prizren
! QGIS file: not saved
! Date: mer., 15 nov. 2023, 15:40:28

Selected UTM CRS: WGS 84 / UTM zone 31N
Domain origin: 408542.6E 4616985.4N
  <http://www.openstreetmap.org/?mlat=41.699399791959735&mlon=1.9008423640047296&zoom=12>
Domain extent: 408178.3-408906.8E 4616524.0-4617446.8N

Desired resolution: 20.0m
DEM layer: elevation
Landuse layer: fuelmap
Landuse type file: ...Behavior/Final/practical4/2-qgis2fds/Landfire.gov_F13.csv
Fire layer: fire
FDS DEVCs layer: FIXME
Wind file: ...PC_2023/fireBehavior/Final/practical4/2-qgis2fds/wind.csv

&HEAD CHID='terrain' TITLE='Description of terrain' /

MISC LEVEL_SET_MODE parameter
 1: Wind not affected by the terrain. No fire.
 2: Wind field established over the terrain, then frozen. No fire.
 3: Wind field following the terrain, no fire.
 4: Wind and fire fully-coupled.

&MISC ORIGIN_LAT=41.6993998
      ORIGIN_LON=1.9008424
      NORTH_BEARING=0.
      TERRAIN_IMAGE='terrain_tex.png'
      LEVEL_SET_MODE=4
      THICKEN_OBSTRUCTIONS=T /

&TIME T_END=3000. /

Example REAC, used when LEVEL_SET_MODE=4
&REAC ID='Wood' SOOT_YIELD=0.005 O=2.5 C=3.4 H=6.2
      HEAT_OF_COMBUSTION=17700. /

Domain and its boundary conditions
2 · 3 meshes of 363.3m · 306.9m · 405.5m size and 5400 cells each
&MULT ID='Meshes'
      DX=363.25 I_LOWER=0 I_UPPER=1
      DY=306.92 J_LOWER=0 J_UPPER=2 /
&MESH IJK=18,15,20 MULT_ID='Meshes'
      XB=-363.23,0.02,-460.41,-153.49,255.08,660.63 /
&VENT ID='Domain BC XMIN' DB='XMIN' SURF_ID='OPEN' /
&VENT ID='Domain BC XMAX' DB='XMAX' SURF_ID='OPEN' /
&VENT ID='Domain BC YMIN' DB='YMIN' SURF_ID='OPEN' /
&VENT ID='Domain BC YMAX' DB='YMAX' SURF_ID='OPEN' /
&VENT ID='Domain BC ZMAX' DB='ZMAX' SURF_ID='OPEN' /

Wind rose at domain origin
&DEVC ID='Origin_UV' XYZ=0.,0.,660.53 QUANTITY='U-VELOCITY' /
&DEVC ID='Origin_VV' XYZ=0.,0.,660.53 QUANTITY='V-VELOCITY' /
&DEVC ID='Origin_WV' XYZ=0.,0.,660.53 QUANTITY='W-VELOCITY' /

Landuse boundary conditions
&SURF ID='NA' RGB=255,255,255 /
&SURF ID='A01' RGB=255,254,212 VEG_LSET_FUEL_INDEX=1 /
&SURF ID='A02' RGB=255,253,102 VEG_LSET_FUEL_INDEX=2 /
&SURF ID='A03' RGB=236,212,99 VEG_LSET_FUEL_INDEX=3 /
&SURF ID='A04' RGB=254,193,119 VEG_LSET_FUEL_INDEX=4 /
&SURF ID='A05' RGB=249,197,92 VEG_LSET_FUEL_INDEX=5 /
&SURF ID='A06' RGB=217,196,152 VEG_LSET_FUEL_INDEX=6 /
&SURF ID='A07' RGB=170,155,127 VEG_LSET_FUEL_INDEX=7 /
&SURF ID='A08' RGB=229,253,214 VEG_LSET_FUEL_INDEX=8 /
&SURF ID='A09' RGB=162,191,90 VEG_LSET_FUEL_INDEX=9 /
&SURF ID='A10' RGB=114,154,85 VEG_LSET_FUEL_INDEX=10 /
&SURF ID='A11' RGB=235,212,253 VEG_LSET_FUEL_INDEX=11 /
&SURF ID='A12' RGB=163,177,243 VEG_LSET_FUEL_INDEX=12 /
&SURF ID='A13' RGB=0,0,0 VEG_LSET_FUEL_INDEX=13 /
&SURF ID='Urban' RGB=186,119,80 /
&SURF ID='Snow-Ice' RGB=234,234,234 /
&SURF ID='Agriculture' RGB=253,242,242 /
&SURF ID='Water' RGB=137,183,221 /
&SURF ID='Barren' RGB=133,153,156 /
&SURF ID='Ignition' VEG_LSET_IGNITE_TIME=0. COLOR='RED' /
&SURF ID='Burned' RGB=20,20,20 /

Output quantities
&SLCF AGL_SLICE=5. QUANTITY='LEVEL SET VALUE' /
&SLCF AGL_SLICE=5. QUANTITY='TEMPERATURE' VECTOR=T /
&SLCF PBX=0.00 QUANTITY='TEMPERATURE' VECTOR=T /
&SLCF PBY=0.00 QUANTITY='TEMPERATURE' VECTOR=T /

Wind
&WIND SPEED=1., RAMP_SPEED_T='ws', RAMP_DIRECTION_T='wd' /
&RAMP ID='ws', T=50.0, F=1.0 /
&RAMP ID='ws', T=75.0, F=5.0 /
&RAMP ID='ws', T=100.0, F=3.0 /
&RAMP ID='ws', T=125.0, F=4.0 /
&RAMP ID='ws', T=150.0, F=5.0 /
&RAMP ID='ws', T=1200.0, F=5.0 /
&RAMP ID='ws', T=20000.0, F=5.0 /
&RAMP ID='wd', T=50.0, F=180.0 /
&RAMP ID='wd', T=75.0, F=180.0 /
&RAMP ID='wd', T=100.0, F=180.0 /
&RAMP ID='wd', T=125.0, F=180.0 /
&RAMP ID='wd', T=150.0, F=180.0 /
&RAMP ID='wd', T=1200.0, F=180.0 /
&RAMP ID='wd', T=20000.0, F=180.0 /

Terrain (1739 OBSTs)
&OBST XB=-364.23,-344.54,441.73,461.36,255.08,312.27 SURF_ID='A05' /
&OBST XB=-344.54,-324.85,441.73,461.36,255.08,304.12 SURF_ID='A05' /
&OBST XB=-324.85,-305.16,441.73,461.36,255.08,294.59 SURF_ID='A05' /
&OBST XB=-305.16,-285.47,441.73,461.36,255.08,286.57 SURF_ID='A05' /
&OBST XB=-285.47,-265.78,441.73,461.36,255.08,288.27 SURF_ID='A05' /
&OBST XB=-265.78,-246.09,441.73,461.36,255.08,292.12 SURF_ID='A05' /
&OBST XB=-246.09,-226.41,441.73,461.36,255.08,296.88 SURF_ID='A05' /
&OBST XB=-226.41,-206.72,441.73,461.36,255.08,301.92 SURF_ID='A05' /
&OBST XB=-206.72,-187.03,441.73,461.36,255.08,308.23 SURF_ID='A05' /
&OBST XB=-187.03,-167.34,441.73,461.36,255.08,311.98 SURF_ID='A09' /
&OBST XB=-167.34,-147.65,441.73,461.36,255.08,316.24 SURF_ID='A05' /
&OBST XB=-147.65,-127.96,441.73,461.36,255.08,321.82 SURF_ID='A05' /
&OBST XB=-127.96,-108.27,441.73,461.36,255.08,329.69 SURF_ID='A05' /
&OBST XB=-108.27,-88.58,441.73,461.36,255.08,336.01 SURF_ID='A05' /
&OBST XB=-88.58,-68.89,441.73,461.36,255.08,343.05 SURF_ID='A05' /
&OBST XB=-68.89,-49.20,441.73,461.36,255.08,348.90 SURF_ID='A05' /
&OBST XB=-49.20,-29.51,441.73,461.36,255.08,352.63 SURF_ID='A07' /
&OBST XB=-29.51,-9.82,441.73,461.36,255.08,352.41 SURF_ID='A07' /
&OBST XB=-9.82,9.87,441.73,461.36,255.08,347.04 SURF_ID='A07' /
&OBST XB=9.87,29.56,441.73,461.36,255.08,341.70 SURF_ID='A07' /
&OBST XB=29.56,49.24,441.73,461.36,255.08,338.73 SURF_ID='A07' /
&OBST XB=49.24,68.93,441.73,461.36,255.08,339.80 SURF_ID='A07' /
&OBST XB=68.93,88.62,441.73,461.36,255.08,337.91 SURF_ID='A07' /
&OBST XB=88.62,108.31,441.73,461.36,255.08,333.14 SURF_ID='A07' /
&OBST XB=108.31,128.00,441.73,461.36,255.08,328.70 SURF_ID='A07' /
&OBST XB=128.00,147.69,441.73,461.36,255.08,332.48 SURF_ID='A07' /
&OBST XB=147.69,167.38,441.73,461.36,255.08,338.30 SURF_ID='A07' /
&OBST XB=167.38,187.07,441.73,461.36,255.08,340.84 SURF_ID='A07' /
&OBST XB=187.07,206.76,441.73,461.36,255.08,337.69 SURF_ID='A07' /
&OBST XB=206.76,226.45,441.73,461.36,255.08,336.40 SURF_ID='A07' /
&OBST XB=226.45,246.14,441.73,461.36,255.08,344.64 SURF_ID='A07' /
&OBST XB=246.14,265.83,441.73,461.36,255.08,354.48 SURF_ID='A07' /
&OBST XB=265.83,285.52,441.73,461.36,255.08,350.63 SURF_ID='A07' /
&OBST XB=285.52,305.21,441.73,461.36,255.08,338.30 SURF_ID='A07' /
&OBST XB=305.21,324.90,441.73,461.36,255.08,336.04 SURF_ID='A07' /
&OBST XB=324.90,344.58,441.73,461.36,255.08,344.33 SURF_ID='A07' /
&OBST XB=344.58,364.27,441.73,461.36,255.08,355.06 SURF_ID='A07' /
&OBST XB=-364.23,-344.54,422.09,441.73,255.08,313.28 SURF_ID='A05' /
&OBST XB=-344.54,-324.85,422.09,441.73,255.08,304.83 SURF_ID='A05' /
&OBST XB=-324.85,-305.16,422.09,441.73,255.08,296.09 SURF_ID='A05' /
&OBST XB=-305.16,-285.47,422.09,441.73,255.08,290.27 SURF_ID='A05' /
&OBST XB=-285.47,-265.78,422.09,441.73,255.08,288.34 SURF_ID='A05' /
&OBST XB=-265.78,-246.09,422.09,441.73,255.08,288.18 SURF_ID='A05' /
&OBST XB=-246.09,-226.41,422.09,441.73,255.08,293.08 SURF_ID='A05' /
&OBST XB=-226.41,-206.72,422.09,441.73,255.08,298.08 SURF_ID='A05' /
&OBST XB=-206.72,-187.03,422.09,441.73,255.08,303.58 SURF_ID='A05' /
&OBST XB=-187.03,-167.34,422.09,441.73,255.08,310.05 SURF_ID='A05' /
&OBST XB=-167.34,-147.65,422.09,441.73,255.08,317.37 SURF_ID='A05' /
&OBST XB=-147.65,-127.96,422.09,441.73,255.08,322.59 SURF_ID='A05' /
&OBST XB=-127.96,-108.27,422.09,441.73,255.08,328.96 SURF_ID='A05' /
&OBST XB=-108.27,-88.58,422.09,441.73,255.08,332.60 SURF_ID='A05' /
&OBST XB=-88.58,-68.89,422.09,441.73,255.08,336.14 SURF_ID='A05' /
&OBST XB=-68.89,-49.20,422.09,441.73,255.08,339.49 SURF_ID='A05' /
&OBST XB=-49.20,-29.51,422.09,441.73,255.08,343.31 SURF_ID='A07' /
&OBST XB=-29.51,-9.82,422.09,441.73,255.08,344.11 SURF_ID='A07' /
&OBST XB=-9.82,9.87,422.09,441.73,255.08,337.79 SURF_ID='A07' /
&OBST XB=9.87,29.56,422.09,441.73,255.08,331.89 SURF_ID='A07' /
&OBST XB=29.56,49.24,422.09,441.73,255.08,328.92 SURF_ID='A07' /
&OBST XB=49.24,68.93,422.09,441.73,255.08,328.85 SURF_ID='A07' /
&OBST XB=68.93,88.62,422.09,441.73,255.08,326.23 SURF_ID='A07' /
&OBST XB=88.62,108.31,422.09,441.73,255.08,322.61 SURF_ID='A07' /
&OBST XB=108.31,128.00,422.09,441.73,255.08,320.43 SURF_ID='A07' /
&OBST XB=128.00,147.69,422.09,441.73,255.08,324.77 SURF_ID='A07' /
&OBST XB=147.69,167.38,422.09,441.73,255.08,329.28 SURF_ID='A07' /
&OBST XB=167.38,187.07,422.09,441.73,255.08,332.45 SURF_ID='A07' /
&OBST XB=187.07,206.76,422.09,441.73,255.08,330.53 SURF_ID='A07' /
&OBST XB=206.76,226.45,422.09,441.73,255.08,330.35 SURF_ID='A07' /
&OBST XB=226.45,246.14,422.09,441.73,255.08,339.16 SURF_ID='A07' /
&OBST XB=246.14,265.83,422.09,441.73,255.08,348.78 SURF_ID='A07' /
&OBST XB=265.83,285.52,422.09,441.73,255.08,345.83 SURF_ID='A07' /
&OBST XB=285.52,305.21,422.09,441.73,255.08,334.07 SURF_ID='A07' /
&OBST XB=305.21,324.90,422.09,441.73,255.08,333.04 SURF_ID='A07' /
&OBST XB=324.90,344.58,422.09,441.73,255.08,342.62 SURF_ID='A07' /
&OBST XB=344.58,364.27,422.09,441.73,255.08,355.13 SURF_ID='A07' /
&OBST XB=-364.23,-344.54,402.46,422.09,255.08,308.75 SURF_ID='A05' /
&OBST XB=-344.54,-324.85,402.46,422.09,255.08,303.09 SURF_ID='A05' /
&OBST XB=-324.85,-305.16,402.46,422.09,255.08,301.14 SURF_ID='A05' /
&OBST XB=-305.16,-285.47,402.46,422.09,255.08,296.87 SURF_ID='A05' /
&OBST XB=-285.47,-265.78,402.46,422.09,255.08,291.64 SURF_ID='A05' /
&OBST XB=-265.78,-246.09,402.46,422.09,255.08,287.53 SURF_ID='A05' /
&OBST XB=-246.09,-226.41,402.46,422.09,255.08,289.57 SURF_ID='A05' /
&OBST XB=-226.41,-206.72,402.46,422.09,255.08,293.34 SURF_ID='A05' /
&OBST XB=-206.72,-187.03,402.46,422.09,255.08,299.55 SURF_ID='A05' /
&OBST XB=-187.03,-167.34,402.46,422.09,255.08,307.48 SURF_ID='A05' /
&OBST XB=-167.34,-147.65,402.46,422.09,255.08,316.16 SURF_ID='A05' /
&OBST XB=-147.65,-127.96,402.46,422.09,255.08,320.61 SURF_ID='A05' /
&OBST XB=-127.96,-108.27,402.46,422.09,255.08,323.93 SURF_ID='A05' /
&OBST XB=-108.27,-88.58,402.46,422.09,255.08,325.52 SURF_ID='A05' /
&OBST XB=-88.58,-68.89,402.46,422.09,255.08,327.12 SURF_ID='A05' /
&OBST XB=-68.89,-49.20,402.46,422.09,255.08,330.72 SURF_ID='A05' /
&OBST XB=-49.20,-29.51,402.46,422.09,255.08,334.87 SURF_ID='A07' /
&OBST XB=-29.51,-9.82,402.46,422.09,255.08,334.01 SURF_ID='A07' /
&OBST XB=-9.82,9.87,402.46,422.09,255.08,326.35 SURF_ID='A07' /
&OBST XB=9.87,29.56,402.46,422.09,255.08,318.90 SURF_ID='A07' /
&OBST XB=29.56,49.24,402.46,422.09,255.08,315.93 SURF_ID='A07' /
&OBST XB=49.24,68.93,402.46,422.09,255.08,313.70 SURF_ID='A07' /
&OBST XB=68.93,88.62,402.46,422.09,255.08,312.87 SURF_ID='A07' /
&OBST XB=88.62,108.31,402.46,422.09,255.08,311.98 SURF_ID='A07' /
&OBST XB=108.31,128.00,402.46,422.09,255.08,311.58 SURF_ID='A07' /
&OBST XB=128.00,147.69,402.46,422.09,255.08,315.74 SURF_ID='A07' /
&OBST XB=147.69,167.38,402.46,422.09,255.08,318.39 SURF_ID='A07' /
&OBST XB=167.38,187.07,402.46,422.09,255.08,320.53 SURF_ID='A07' /
&OBST XB=187.07,206.76,402.46,422.09,255.08,318.57 SURF_ID='A07' /
&OBST XB=206.76,226.45,402.46,422.09,255.08,323.27 SURF_ID='A07' /
&OBST XB=226.45,246.14,402.46,422.09,255.08,332.49 SURF_ID='A07' /
&OBST XB=246.14,265.83,402.46,422.09,255.08,341.71 SURF_ID='A07' /
&OBST XB=265.83,285.52,402.46,422.09,255.08,342.64 SURF_ID='A07' /
&OBST XB=285.52,305.21,402.46,422.09,255.08,331.88 SURF_ID='A07' /
&OBST XB=305.21,324.90,402.46,422.09,255.08,329.94 SURF_ID='A07' /
&OBST XB=324.90,344.58,402.46,422.09,255.08,339.02 SURF_ID='A07' /
&OBST XB=344.58,364.27,402.46,422.09,255.08,352.01 SURF_ID='A07' /
&OBST XB=-364.23,-344.54,382.82,402.46,255.08,310.07 SURF_ID='A05' /
&OBST XB=-344.54,-324.85,382.82,402.46,255.08,310.81 SURF_ID='A05' /
&OBST XB=-324.85,-305.16,382.82,402.46,255.08,310.38 SURF_ID='A05' /
&OBST XB=-305.16,-285.47,382.82,402.46,255.08,304.57 SURF_ID='A05' /
&OBST XB=-285.47,-265.78,382.82,402.46,255.08,297.90 SURF_ID='A05' /
&OBST XB=-265.78,-246.09,382.82,402.46,255.08,293.25 SURF_ID='A05' /
&OBST XB=-246.09,-226.41,382.82,402.46,255.08,290.07 SURF_ID='A05' /
&OBST XB=-226.41,-206.72,382.82,402.46,255.08,287.95 SURF_ID='A05' /
&OBST XB=-206.72,-187.03,382.82,402.46,255.08,293.27 SURF_ID='A05' /
&OBST XB=-187.03,-167.34,382.82,402.46,255.08,298.04 SURF_ID='A05' /
&OBST XB=-167.34,-147.65,382.82,402.46,255.08,307.65 SURF_ID='A05' /
&OBST XB=-147.65,-127.96,382.82,402.46,255.08,312.82 SURF_ID='A05' /
&OBST XB=-127.96,-108.27,382.82,402.46,255.08,314.94 SURF_ID='A05' /
&OBST XB=-108.27,-88.58,382.82,402.46,255.08,316.77 SURF_ID='A05' /
&OBST XB=-88.58,-68.89,382.82,402.46,255.08,318.89 SURF_ID='A05' /
&OBST XB=-68.89,-49.20,382.82,402.46,255.08,322.09 SURF_ID='A05' /
&OBST XB=-49.20,-29.51,382.82,402.46,255.08,325.72 SURF_ID='A07' /
&OBST XB=-29.51,-9.82,382.82,402.46,255.08,320.72 SURF_ID='A07' /
&OBST XB=-9.82,9.87,382.82,402.46,255.08,311.15 SURF_ID='A07' /
&OBST XB=9.87,29.56,382.82,402.46,255.08,303.52 SURF_ID='A07' /
&OBST XB=29.56,49.24,382.82,402.46,255.08,302.67 SURF_ID='A07' /
&OBST XB=49.24,68.93,382.82,402.46,255.08,299.68 SURF_ID='A07' /
&OBST XB=68.93,88.62,382.82,402.46,255.08,302.04 SURF_ID='A07' /
&OBST XB=88.62,108.31,382.82,402.46,255.08,302.42 SURF_ID='A07' /
&OBST XB=108.31,128.00,382.82,402.46,255.08,304.35 SURF_ID='A07' /
&OBST XB=128.00,147.69,382.82,402.46,255.08,306.30 SURF_ID='A07' /
&OBST XB=147.69,167.38,382.82,402.46,255.08,307.10 SURF_ID='A07' /
&OBST XB=167.38,187.07,382.82,402.46,255.08,304.36 SURF_ID='A07' /
&OBST XB=187.07,206.76,382.82,402.46,255.08,305.73 SURF_ID='A07' /
&OBST XB=206.76,226.45,382.82,402.46,255.08,312.82 SURF_ID='A07' /
&OBST XB=226.45,246.14,382.82,402.46,255.08,321.01 SURF_ID='A07' /
&OBST XB=246.14,265.83,382.82,402.46,255.08,330.78 SURF_ID='A07' /
&OBST XB=265.83,285.52,382.82,402.46,255.08,335.80 SURF_ID='A07' /
&OBST XB=285.52,305.21,382.82,402.46,255.08,327.67 SURF_ID='A07' /
&OBST XB=305.21,324.90,382.82,402.46,255.08,327.24 SURF_ID='A05' /
&OBST XB=324.90,344.58,382.82,402.46,255.08,335.82 SURF_ID='A05' /
&OBST XB=344.58,364.27,382.82,402.46,255.08,345.22 SURF_ID='A05' /
&OBST XB=-364.23,-344.54,363.19,382.82,255.08,319.90 SURF_ID='A05' /
&OBST XB=-344.54,-324.85,363.19,382.82,255.08,321.96 SURF_ID='A05' /
&OBST XB=-324.85,-305.16,363.19,382.82,255.08,318.91 SURF_ID='A05' /
&OBST XB=-305.16,-285.47,363.19,382.82,255.08,310.69 SURF_ID='A05' /
&OBST XB=-285.47,-265.78,363.19,382.82,255.08,303.79 SURF_ID='A05' /
&OBST XB=-265.78,-246.09,363.19,382.82,255.08,298.16 SURF_ID='A05' /
&OBST XB=-246.09,-226.41,363.19,382.82,255.08,294.65 SURF_ID='A05' /
&OBST XB=-226.41,-206.72,363.19,382.82,255.08,291.80 SURF_ID='A05' /
&OBST XB=-206.72,-187.03,363.19,382.82,255.08,290.96 SURF_ID='A05' /
&OBST XB=-187.03,-167.34,363.19,382.82,255.08,291.20 SURF_ID='A05' /
&OBST XB=-167.34,-147.65,363.19,382.82,255.08,295.43 SURF_ID='A05' /
&OBST XB=-147.65,-127.96,363.19,382.82,255.08,301.40 SURF_ID='A05' /
&OBST XB=-127.96,-108.27,363.19,382.82,255.08,305.43 SURF_ID='A05' /
&OBST XB=-108.27,-88.58,363.19,382.82,255.08,308.66 SURF_ID='A05' /
&OBST XB=-88.58,-68.89,363.19,382.82,255.08,310.77 SURF_ID='A05' /
&OBST XB=-68.89,-49.20,363.19,382.82,255.08,314.24 SURF_ID='A05' /
&OBST XB=-49.20,-29.51,363.19,382.82,255.08,314.35 SURF_ID='A05' /
&OBST XB=-29.51,-9.82,363.19,382.82,255.08,306.40 SURF_ID='A07' /
&OBST XB=-9.82,9.87,363.19,382.82,255.08,298.60 SURF_ID='A07' /
&OBST XB=9.87,29.56,363.19,382.82,255.08,297.46 SURF_ID='A07' /
&OBST XB=29.56,49.24,363.19,382.82,255.08,301.05 SURF_ID='A07' /
&OBST XB=49.24,68.93,363.19,382.82,255.08,303.41 SURF_ID='A07' /
&OBST XB=68.93,88.62,363.19,382.82,255.08,304.13 SURF_ID='A07' /
&OBST XB=88.62,108.31,363.19,382.82,255.08,303.67 SURF_ID='A07' /
&OBST XB=108.31,128.00,363.19,382.82,255.08,303.60 SURF_ID='A07' /
&OBST XB=128.00,147.69,363.19,382.82,255.08,303.72 SURF_ID='A07' /
&OBST XB=147.69,167.38,363.19,382.82,255.08,302.44 SURF_ID='A07' /
&OBST XB=167.38,187.07,363.19,382.82,255.08,303.77 SURF_ID='A07' /
&OBST XB=187.07,206.76,363.19,382.82,255.08,304.37 SURF_ID='A07' /
&OBST XB=206.76,226.45,363.19,382.82,255.08,306.88 SURF_ID='A07' /
&OBST XB=226.45,246.14,363.19,382.82,255.08,310.47 SURF_ID='A07' /
&OBST XB=246.14,265.83,363.19,382.82,255.08,318.79 SURF_ID='A07' /
&OBST XB=265.83,285.52,363.19,382.82,255.08,325.72 SURF_ID='A07' /
&OBST XB=285.52,305.21,363.19,382.82,255.08,322.01 SURF_ID='A07' /
&OBST XB=305.21,324.90,363.19,382.82,255.08,324.45 SURF_ID='A07' /
&OBST XB=324.90,344.58,363.19,382.82,255.08,333.85 SURF_ID='A05' /
&OBST XB=344.58,364.27,363.19,382.82,255.08,341.57 SURF_ID='A07' /
&OBST XB=-364.23,-344.54,343.56,363.19,255.08,331.10 SURF_ID='A05' /
&OBST XB=-344.54,-324.85,343.56,363.19,255.08,331.87 SURF_ID='A05' /
&OBST XB=-324.85,-305.16,343.56,363.19,255.08,326.80 SURF_ID='A05' /
&OBST XB=-305.16,-285.47,343.56,363.19,255.08,318.10 SURF_ID='A05' /
&OBST XB=-285.47,-265.78,343.56,363.19,255.08,309.80 SURF_ID='A05' /
&OBST XB=-265.78,-246.09,343.56,363.19,255.08,303.20 SURF_ID='A05' /
&OBST XB=-246.09,-226.41,343.56,363.19,255.08,299.31 SURF_ID='A05' /
&OBST XB=-226.41,-206.72,343.56,363.19,255.08,297.35 SURF_ID='A05' /
&OBST XB=-206.72,-187.03,343.56,363.19,255.08,295.05 SURF_ID='A05' /
&OBST XB=-187.03,-167.34,343.56,363.19,255.08,291.15 SURF_ID='A05' /
&OBST XB=-167.34,-147.65,343.56,363.19,255.08,290.01 SURF_ID='A05' /
&OBST XB=-147.65,-127.96,343.56,363.19,255.08,293.69 SURF_ID='A05' /
&OBST XB=-127.96,-108.27,343.56,363.19,255.08,299.05 SURF_ID='A05' /
&OBST XB=-108.27,-88.58,343.56,363.19,255.08,302.81 SURF_ID='A05' /
&OBST XB=-88.58,-68.89,343.56,363.19,255.08,304.49 SURF_ID='A05' /
&OBST XB=-68.89,-49.20,343.56,363.19,255.08,305.81 SURF_ID='A05' /
&OBST XB=-49.20,-29.51,343.56,363.19,255.08,302.91 SURF_ID='A05' /
&OBST XB=-29.51,-9.82,343.56,363.19,255.08,297.56 SURF_ID='A07' /
&OBST XB=-9.82,9.87,343.56,363.19,255.08,297.77 SURF_ID='A07' /
&OBST XB=9.87,29.56,343.56,363.19,255.08,302.37 SURF_ID='A07' /
&OBST XB=29.56,49.24,343.56,363.19,255.08,307.29 SURF_ID='A07' /
&OBST XB=49.24,68.93,343.56,363.19,255.08,311.20 SURF_ID='A07' /
&OBST XB=68.93,88.62,343.56,363.19,255.08,313.60 SURF_ID='A07' /
&OBST XB=88.62,108.31,343.56,363.19,255.08,314.44 SURF_ID='A07' /
&OBST XB=108.31,128.00,343.56,363.19,255.08,314.18 SURF_ID='A07' /
&OBST XB=128.00,147.69,343.56,363.19,255.08,311.08 SURF_ID='A07' /
&OBST XB=147.69,167.38,343.56,363.19,255.08,307.96 SURF_ID='A07' /
&OBST XB=167.38,187.07,343.56,363.19,255.08,310.34 SURF_ID='A07' /
&OBST XB=187.07,206.76,343.56,363.19,255.08,311.39 SURF_ID='A07' /
&OBST XB=206.76,226.45,343.56,363.19,255.08,310.73 SURF_ID='A07' /
&OBST XB=226.45,246.14,343.56,363.19,255.08,307.44 SURF_ID='A07' /
&OBST XB=246.14,265.83,343.56,363.19,255.08,308.42 SURF_ID='A05' /
&OBST XB=265.83,285.52,343.56,363.19,255.08,315.04 SURF_ID='A05' /
&OBST XB=285.52,305.21,343.56,363.19,255.08,316.77 SURF_ID='A07' /
&OBST XB=305.21,324.90,343.56,363.19,255.08,325.78 SURF_ID='A07' /
&OBST XB=324.90,344.58,343.56,363.19,255.08,334.40 SURF_ID='A07' /
&OBST XB=344.58,364.27,343.56,363.19,255.08,338.29 SURF_ID='A07' /
&OBST XB=-364.23,-344.54,323.92,343.56,255.08,341.91 SURF_ID='A05' /
&OBST XB=-344.54,-324.85,323.92,343.56,255.08,339.71 SURF_ID='A05' /
&OBST XB=-324.85,-305.16,323.92,343.56,255.08,333.35 SURF_ID='A05' /
&OBST XB=-305.16,-285.47,323.92,343.56,255.08,324.07 SURF_ID='A05' /
&OBST XB=-285.47,-265.78,323.92,343.56,255.08,316.12 SURF_ID='A05' /
&OBST XB=-265.78,-246.09,323.92,343.56,255.08,308.56 SURF_ID='A05' /
&OBST XB=-246.09,-226.41,323.92,343.56,255.08,304.42 SURF_ID='A05' /
&OBST XB=-226.41,-206.72,323.92,343.56,255.08,302.58 SURF_ID='A05' /
&OBST XB=-206.72,-187.03,323.92,343.56,255.08,300.44 SURF_ID='A05' /
&OBST XB=-187.03,-167.34,323.92,343.56,255.08,297.04 SURF_ID='A05' /
&OBST XB=-167.34,-147.65,323.92,343.56,255.08,290.76 SURF_ID='A05' /
&OBST XB=-147.65,-127.96,323.92,343.56,255.08,291.27 SURF_ID='A05' /
&OBST XB=-127.96,-108.27,323.92,343.56,255.08,295.02 SURF_ID='A05' /
&OBST XB=-108.27,-88.58,323.92,343.56,255.08,298.38 SURF_ID='A05' /
&OBST XB=-88.58,-68.89,323.92,343.56,255.08,299.67 SURF_ID='A05' /
&OBST XB=-68.89,-49.20,323.92,343.56,255.08,297.83 SURF_ID='A05' /
&OBST XB=-49.20,-29.51,323.92,343.56,255.08,295.92 SURF_ID='A05' /
&OBST XB=-29.51,-9.82,323.92,343.56,255.08,297.09 SURF_ID='A07' /
&OBST XB=-9.82,9.87,323.92,343.56,255.08,303.01 SURF_ID='A07' /
&OBST XB=9.87,29.56,323.92,343.56,255.08,309.23 SURF_ID='A07' /
&OBST XB=29.56,49.24,323.92,343.56,255.08,314.80 SURF_ID='A07' /
&OBST XB=49.24,68.93,323.92,343.56,255.08,320.69 SURF_ID='A07' /
&OBST XB=68.93,88.62,323.92,343.56,255.08,324.72 SURF_ID='A07' /
&OBST XB=88.62,108.31,323.92,343.56,255.08,326.74 SURF_ID='A07' /
&OBST XB=108.31,128.00,323.92,343.56,255.08,324.35 SURF_ID='A07' /
&OBST XB=128.00,147.69,323.92,343.56,255.08,316.66 SURF_ID='A07' /
&OBST XB=147.69,167.38,323.92,343.56,255.08,315.81 SURF_ID='A07' /
&OBST XB=167.38,187.07,323.92,343.56,255.08,318.39 SURF_ID='A07' /
&OBST XB=187.07,206.76,323.92,343.56,255.08,318.91 SURF_ID='A07' /
&OBST XB=206.76,226.45,323.92,343.56,255.08,318.91 SURF_ID='A07' /
&OBST XB=226.45,246.14,323.92,343.56,255.08,315.94 SURF_ID='A07' /
&OBST XB=246.14,265.83,323.92,343.56,255.08,310.25 SURF_ID='A05' /
&OBST XB=265.83,285.52,323.92,343.56,255.08,308.38 SURF_ID='A07' /
&OBST XB=285.52,305.21,323.92,343.56,255.08,316.27 SURF_ID='A07' /
&OBST XB=305.21,324.90,323.92,343.56,255.08,325.32 SURF_ID='A07' /
&OBST XB=324.90,344.58,323.92,343.56,255.08,334.14 SURF_ID='A07' /
&OBST XB=344.58,364.27,323.92,343.56,255.08,335.01 SURF_ID='A07' /
&OBST XB=-364.23,-344.54,304.29,323.92,255.08,350.44 SURF_ID='A05' /
&OBST XB=-344.54,-324.85,304.29,323.92,255.08,347.64 SURF_ID='A05' /
&OBST XB=-324.85,-305.16,304.29,323.92,255.08,339.50 SURF_ID='A05' /
&OBST XB=-305.16,-285.47,304.29,323.92,255.08,330.34 SURF_ID='A05' /
&OBST XB=-285.47,-265.78,304.29,323.92,255.08,321.70 SURF_ID='A05' /
&OBST XB=-265.78,-246.09,304.29,323.92,255.08,313.77 SURF_ID='A05' /
&OBST XB=-246.09,-226.41,304.29,323.92,255.08,309.63 SURF_ID='A05' /
&OBST XB=-226.41,-206.72,304.29,323.92,255.08,308.47 SURF_ID='A05' /
&OBST XB=-206.72,-187.03,304.29,323.92,255.08,306.19 SURF_ID='A05' /
&OBST XB=-187.03,-167.34,304.29,323.92,255.08,302.63 SURF_ID='A05' /
&OBST XB=-167.34,-147.65,304.29,323.92,255.08,295.77 SURF_ID='A05' /
&OBST XB=-147.65,-127.96,304.29,323.92,255.08,292.37 SURF_ID='A05' /
&OBST XB=-127.96,-108.27,304.29,323.92,255.08,292.51 SURF_ID='A05' /
&OBST XB=-108.27,-88.58,304.29,323.92,255.08,294.39 SURF_ID='A05' /
&OBST XB=-88.58,-68.89,304.29,323.92,255.08,294.82 SURF_ID='A05' /
&OBST XB=-68.89,-49.20,304.29,323.92,255.08,295.98 SURF_ID='A05' /
&OBST XB=-49.20,-29.51,304.29,323.92,255.08,298.90 SURF_ID='A05' /
&OBST XB=-29.51,-9.82,304.29,323.92,255.08,304.15 SURF_ID='A07' /
&OBST XB=-9.82,9.87,304.29,323.92,255.08,309.51 SURF_ID='A07' /
&OBST XB=9.87,29.56,304.29,323.92,255.08,315.80 SURF_ID='A07' /
&OBST XB=29.56,49.24,304.29,323.92,255.08,322.99 SURF_ID='A07' /
&OBST XB=49.24,68.93,304.29,323.92,255.08,329.18 SURF_ID='A07' /
&OBST XB=68.93,88.62,304.29,323.92,255.08,335.13 SURF_ID='A07' /
&OBST XB=88.62,108.31,304.29,323.92,255.08,337.61 SURF_ID='A07' /
&OBST XB=108.31,128.00,304.29,323.92,255.08,331.58 SURF_ID='A07' /
&OBST XB=128.00,147.69,304.29,323.92,255.08,320.91 SURF_ID='A07' /
&OBST XB=147.69,167.38,304.29,323.92,255.08,322.18 SURF_ID='A07' /
&OBST XB=167.38,187.07,304.29,323.92,255.08,326.71 SURF_ID='A07' /
&OBST XB=187.07,206.76,304.29,323.92,255.08,328.05 SURF_ID='A07' /
&OBST XB=206.76,226.45,304.29,323.92,255.08,328.05 SURF_ID='A07' /
&OBST XB=226.45,246.14,304.29,323.92,255.08,325.58 SURF_ID='A07' /
&OBST XB=246.14,265.83,304.29,323.92,255.08,319.39 SURF_ID='A07' /
&OBST XB=265.83,285.52,304.29,323.92,255.08,312.68 SURF_ID='A07' /
&OBST XB=285.52,305.21,304.29,323.92,255.08,314.34 SURF_ID='A07' /
&OBST XB=305.21,324.90,304.29,323.92,255.08,319.02 SURF_ID='A07' /
&OBST XB=324.90,344.58,304.29,323.92,255.08,325.53 SURF_ID='A07' /
&OBST XB=344.58,364.27,304.29,323.92,255.08,327.87 SURF_ID='A07' /
&OBST XB=-364.23,-344.54,284.66,304.29,255.08,358.29 SURF_ID='A05' /
&OBST XB=-344.54,-324.85,284.66,304.29,255.08,353.55 SURF_ID='A05' /
&OBST XB=-324.85,-305.16,284.66,304.29,255.08,345.13 SURF_ID='A05' /
&OBST XB=-305.16,-285.47,284.66,304.29,255.08,335.53 SURF_ID='A05' /
&OBST XB=-285.47,-265.78,284.66,304.29,255.08,326.67 SURF_ID='A05' /
&OBST XB=-265.78,-246.09,284.66,304.29,255.08,319.80 SURF_ID='A05' /
&OBST XB=-246.09,-226.41,284.66,304.29,255.08,315.81 SURF_ID='A05' /
&OBST XB=-226.41,-206.72,284.66,304.29,255.08,314.07 SURF_ID='A05' /
&OBST XB=-206.72,-187.03,284.66,304.29,255.08,311.39 SURF_ID='A05' /
&OBST XB=-187.03,-167.34,284.66,304.29,255.08,308.82 SURF_ID='A05' /
&OBST XB=-167.34,-147.65,284.66,304.29,255.08,303.33 SURF_ID='A05' /
&OBST XB=-147.65,-127.96,284.66,304.29,255.08,301.46 SURF_ID='A05' /
&OBST XB=-127.96,-108.27,284.66,304.29,255.08,298.95 SURF_ID='A05' /
&OBST XB=-108.27,-88.58,284.66,304.29,255.08,297.87 SURF_ID='A05' /
&OBST XB=-88.58,-68.89,284.66,304.29,255.08,298.30 SURF_ID='A05' /
&OBST XB=-68.89,-49.20,284.66,304.29,255.08,303.18 SURF_ID='A05' /
&OBST XB=-49.20,-29.51,284.66,304.29,255.08,309.74 SURF_ID='A07' /
&OBST XB=-29.51,-9.82,284.66,304.29,255.08,313.68 SURF_ID='A07' /
&OBST XB=-9.82,9.87,284.66,304.29,255.08,317.63 SURF_ID='A07' /
&OBST XB=9.87,29.56,284.66,304.29,255.08,321.99 SURF_ID='A07' /
&OBST XB=29.56,49.24,284.66,304.29,255.08,328.98 SURF_ID='A07' /
&OBST XB=49.24,68.93,284.66,304.29,255.08,336.39 SURF_ID='A07' /
&OBST XB=68.93,88.62,284.66,304.29,255.08,342.69 SURF_ID='A07' /
&OBST XB=88.62,108.31,284.66,304.29,255.08,345.80 SURF_ID='A07' /
&OBST XB=108.31,128.00,284.66,304.29,255.08,337.75 SURF_ID='A07' /
&OBST XB=128.00,147.69,284.66,304.29,255.08,327.09 SURF_ID='A07' /
&OBST XB=147.69,167.38,284.66,304.29,255.08,327.09 SURF_ID='A07' /
&OBST XB=167.38,187.07,284.66,304.29,255.08,334.39 SURF_ID='A07' /
&OBST XB=187.07,206.76,284.66,304.29,255.08,336.99 SURF_ID='A07' /
&OBST XB=206.76,226.45,284.66,304.29,255.08,337.86 SURF_ID='A07' /
&OBST XB=226.45,246.14,284.66,304.29,255.08,335.28 SURF_ID='A07' /
&OBST XB=246.14,265.83,284.66,304.29,255.08,328.83 SURF_ID='A07' /
&OBST XB=265.83,285.52,284.66,304.29,255.08,320.95 SURF_ID='A07' /
&OBST XB=285.52,305.21,284.66,304.29,255.08,313.28 SURF_ID='A07' /
&OBST XB=305.21,324.90,284.66,304.29,255.08,314.33 SURF_ID='A07' /
&OBST XB=324.90,344.58,284.66,304.29,255.08,317.96 SURF_ID='A07' /
&OBST XB=344.58,364.27,284.66,304.29,255.08,320.73 SURF_ID='A07' /
&OBST XB=-364.23,-344.54,265.02,284.66,255.08,366.99 SURF_ID='A05' /
&OBST XB=-344.54,-324.85,265.02,284.66,255.08,360.87 SURF_ID='A05' /
&OBST XB=-324.85,-305.16,265.02,284.66,255.08,351.02 SURF_ID='A05' /
&OBST XB=-305.16,-285.47,265.02,284.66,255.08,341.42 SURF_ID='A05' /
&OBST XB=-285.47,-265.78,265.02,284.66,255.08,332.56 SURF_ID='A05' /
&OBST XB=-265.78,-246.09,265.02,284.66,255.08,325.03 SURF_ID='A05' /
&OBST XB=-246.09,-226.41,265.02,284.66,255.08,322.02 SURF_ID='A05' /
&OBST XB=-226.41,-206.72,265.02,284.66,255.08,319.61 SURF_ID='A05' /
&OBST XB=-206.72,-187.03,265.02,284.66,255.08,317.81 SURF_ID='A05' /
&OBST XB=-187.03,-167.34,265.02,284.66,255.08,314.95 SURF_ID='A05' /
&OBST XB=-167.34,-147.65,265.02,284.66,255.08,310.88 SURF_ID='A05' /
&OBST XB=-147.65,-127.96,265.02,284.66,255.08,315.29 SURF_ID='A05' /
&OBST XB=-127.96,-108.27,265.02,284.66,255.08,315.55 SURF_ID='A05' /
&OBST XB=-108.27,-88.58,265.02,284.66,255.08,313.68 SURF_ID='A05' /
&OBST XB=-88.58,-68.89,265.02,284.66,255.08,312.63 SURF_ID='A05' /
&OBST XB=-68.89,-49.20,265.02,284.66,255.08,315.58 SURF_ID='A05' /
&OBST XB=-49.20,-29.51,265.02,284.66,255.08,318.85 SURF_ID='A05' /
&OBST XB=-29.51,-9.82,265.02,284.66,255.08,322.78 SURF_ID='A05' /
&OBST XB=-9.82,9.87,265.02,284.66,255.08,326.71 SURF_ID='A05' /
&OBST XB=9.87,29.56,265.02,284.66,255.08,329.67 SURF_ID='A05' /
&OBST XB=29.56,49.24,265.02,284.66,255.08,333.50 SURF_ID='A05' /
&OBST XB=49.24,68.93,265.02,284.66,255.08,341.82 SURF_ID='A05' /
&OBST XB=68.93,88.62,265.02,284.66,255.08,349.24 SURF_ID='A05' /
&OBST XB=88.62,108.31,265.02,284.66,255.08,352.41 SURF_ID='A05' /
&OBST XB=108.31,128.00,265.02,284.66,255.08,343.82 SURF_ID='A05' /
&OBST XB=128.00,147.69,265.02,284.66,255.08,333.43 SURF_ID='A05' /
&OBST XB=147.69,167.38,265.02,284.66,255.08,330.42 SURF_ID='A05' /
&OBST XB=167.38,187.07,265.02,284.66,255.08,338.78 SURF_ID='A05' /
&OBST XB=187.07,206.76,265.02,284.66,255.08,345.45 SURF_ID='A05' /
&OBST XB=206.76,226.45,265.02,284.66,255.08,347.41 SURF_ID='A05' /
&OBST XB=226.45,246.14,265.02,284.66,255.08,344.03 SURF_ID='A05' /
&OBST XB=246.14,265.83,265.02,284.66,255.08,336.68 SURF_ID='A05' /
&OBST XB=265.83,285.52,265.02,284.66,255.08,329.07 SURF_ID='A05' /
&OBST XB=285.52,305.21,265.02,284.66,255.08,321.49 SURF_ID='A05' /
&OBST XB=305.21,324.90,265.02,284.66,255.08,315.50 SURF_ID='A05' /
&OBST XB=324.90,344.58,265.02,284.66,255.08,315.76 SURF_ID='A05' /
&OBST XB=344.58,364.27,265.02,284.66,255.08,315.73 SURF_ID='A05' /
&OBST XB=-364.23,-344.54,245.39,265.02,255.08,373.55 SURF_ID='A05' /
&OBST XB=-344.54,-324.85,245.39,265.02,255.08,367.23 SURF_ID='A05' /
&OBST XB=-324.85,-305.16,245.39,265.02,255.08,356.66 SURF_ID='A05' /
&OBST XB=-305.16,-285.47,245.39,265.02,255.08,347.06 SURF_ID='A05' /
&OBST XB=-285.47,-265.78,245.39,265.02,255.08,338.43 SURF_ID='A05' /
&OBST XB=-265.78,-246.09,245.39,265.02,255.08,332.19 SURF_ID='A05' /
&OBST XB=-246.09,-226.41,245.39,265.02,255.08,328.41 SURF_ID='A05' /
&OBST XB=-226.41,-206.72,245.39,265.02,255.08,326.00 SURF_ID='A05' /
&OBST XB=-206.72,-187.03,245.39,265.02,255.08,325.34 SURF_ID='A05' /
&OBST XB=-187.03,-167.34,245.39,265.02,255.08,322.30 SURF_ID='A05' /
&OBST XB=-167.34,-147.65,245.39,265.02,255.08,315.79 SURF_ID='A05' /
&OBST XB=-147.65,-127.96,245.39,265.02,255.08,320.32 SURF_ID='A05' /
&OBST XB=-127.96,-108.27,245.39,265.02,255.08,327.50 SURF_ID='A05' /
&OBST XB=-108.27,-88.58,245.39,265.02,255.08,327.47 SURF_ID='A05' /
&OBST XB=-88.58,-68.89,245.39,265.02,255.08,321.47 SURF_ID='A05' /
&OBST XB=-68.89,-49.20,245.39,265.02,255.08,324.97 SURF_ID='A05' /
&OBST XB=-49.20,-29.51,245.39,265.02,255.08,328.91 SURF_ID='A05' /
&OBST XB=-29.51,-9.82,245.39,265.02,255.08,332.82 SURF_ID='A05' /
&OBST XB=-9.82,9.87,245.39,265.02,255.08,336.53 SURF_ID='A05' /